Version 4
SHEET 1 1812 680
WIRE 32 -416 -80 -416
WIRE 208 -416 32 -416
WIRE 496 -416 208 -416
WIRE 640 -416 496 -416
WIRE 752 -416 640 -416
WIRE 1376 -416 848 -416
WIRE 1600 -416 1600 -448
WIRE 1600 -416 1376 -416
WIRE 1744 -416 1600 -416
WIRE 1744 -384 1744 -416
WIRE -80 -368 -80 -416
WIRE 32 -352 32 -416
WIRE 208 -352 208 -416
WIRE 496 -352 496 -416
WIRE 1376 -352 1376 -416
WIRE 1328 -272 1312 -272
WIRE 1744 -272 1744 -304
WIRE 640 -256 640 -416
WIRE 672 -256 640 -256
WIRE 800 -256 800 -352
WIRE 800 -256 768 -256
WIRE -80 -240 -80 -288
WIRE 208 -224 208 -272
WIRE 496 -224 496 -272
WIRE 1376 -208 1376 -256
WIRE 352 -176 272 -176
WIRE 432 -176 352 -176
WIRE 208 -112 208 -128
WIRE 352 -112 352 -176
WIRE 352 -112 208 -112
WIRE 496 -96 496 -128
WIRE 608 -96 496 -96
WIRE 720 -96 720 -192
WIRE 720 -96 608 -96
WIRE 1312 -96 1312 -272
WIRE 1376 -96 1376 -128
WIRE 1376 -96 1312 -96
WIRE 496 -80 496 -96
WIRE 608 -80 608 -96
WIRE 720 -80 720 -96
WIRE 352 -64 352 -112
WIRE 896 -64 848 -64
WIRE 848 -48 848 -64
WIRE 1008 -48 960 -48
WIRE 1040 -48 1008 -48
WIRE 1232 -48 1040 -48
WIRE 1264 -48 1232 -48
WIRE 1376 -48 1376 -96
WIRE 1376 -48 1344 -48
WIRE 1600 -48 1600 -416
WIRE 32 -16 32 -272
WIRE 288 -16 32 -16
WIRE 896 -16 896 -64
WIRE 1040 -16 1040 -48
WIRE 1232 -16 1232 -48
WIRE 960 0 960 -48
WIRE 960 0 928 0
WIRE 496 16 496 0
WIRE 608 16 608 -16
WIRE 608 16 496 16
WIRE 720 16 720 -16
WIRE 720 16 608 16
WIRE 864 16 800 16
WIRE 496 32 496 16
WIRE 960 32 928 32
WIRE 32 64 32 -16
WIRE 352 64 352 32
WIRE 960 80 960 32
WIRE 1040 80 1040 48
WIRE 1040 80 960 80
WIRE 1232 80 1232 48
WIRE 1232 80 1040 80
WIRE 1600 80 1600 32
WIRE 1600 80 1232 80
WIRE 1600 128 1600 80
WIRE 496 160 496 112
WIRE 608 208 560 208
WIRE 800 208 800 16
WIRE 800 208 688 208
WIRE 864 208 800 208
WIRE 1232 208 1232 80
WIRE 1232 208 928 208
WIRE 1376 272 1376 -48
WIRE 1008 320 1008 -48
WIRE 1104 320 1008 320
WIRE 1008 352 1008 320
WIRE 1104 352 1104 320
WIRE 32 496 32 144
WIRE 352 496 352 144
WIRE 352 496 32 496
WIRE 496 496 496 256
WIRE 496 496 352 496
WIRE 1008 496 1008 416
WIRE 1008 496 496 496
WIRE 1104 496 1104 416
WIRE 1104 496 1008 496
WIRE 1472 496 1472 464
WIRE 1472 496 1104 496
WIRE 1600 496 1600 208
WIRE 1600 496 1472 496
WIRE 32 528 32 496
FLAG 896 48 V+
FLAG 1600 -448 V+
FLAG 848 -48 0
FLAG 32 528 0
FLAG -80 -240 0
FLAG 1744 -272 0
SYMBOL res 16 -368 R0
SYMATTR InstName R1
SYMATTR Value 10k
SYMBOL voltage 32 48 R0
WINDOW 123 0 0 Left 0
WINDOW 39 0 0 Left 0
SYMATTR InstName V1
SYMATTR Value 1.7
SYMBOL pnp 272 -128 R180
SYMATTR InstName Q1
SYMATTR Value ksp94
SYMBOL npn 288 -64 R0
SYMATTR InstName Q3
SYMATTR Value KSP42TA
SYMBOL voltage 208 -368 R0
WINDOW 123 0 0 Left 0
WINDOW 39 0 0 Left 0
SYMATTR InstName V2
SYMATTR Value 1.7
SYMBOL res 480 -368 R0
SYMATTR InstName R2
SYMATTR Value 150
SYMBOL res 336 48 R0
SYMATTR InstName R3
SYMATTR Value 1k
SYMBOL voltage 496 -96 R0
WINDOW 123 0 0 Left 0
WINDOW 39 0 0 Left 0
SYMATTR InstName V3
SYMATTR Value 9.1
SYMBOL res 480 16 R0
SYMATTR InstName R4
SYMATTR Value 10
SYMBOL cap 592 -80 R0
SYMATTR InstName C1
SYMATTR Value 47µ
SYMBOL cap 704 -80 R0
SYMATTR InstName C2
SYMATTR Value 0.01µ
SYMBOL npn 672 -192 R270
SYMATTR InstName Q5
SYMATTR Value mje15030
SYMBOL npn 752 -352 R270
SYMATTR InstName Q6
SYMATTR Value MJl21194_C
SYMBOL pnp 432 -128 M180
SYMATTR InstName Q2
SYMATTR Value ksp94
SYMBOL pnp 560 256 R180
SYMATTR InstName Q4
SYMATTR Value ksp94
SYMBOL res 704 192 R90
WINDOW 0 0 56 VBottom 2
WINDOW 3 32 56 VTop 2
SYMATTR InstName R5
SYMATTR Value 10
SYMBOL diode 1024 -16 R0
SYMATTR InstName D1
SYMATTR Value 1N914
SYMBOL diode 1248 48 R180
WINDOW 0 24 64 Left 2
WINDOW 3 24 0 Left 2
SYMATTR InstName D2
SYMATTR Value 1N914
SYMBOL cap 992 352 R0
SYMATTR InstName C3
SYMATTR Value 47µ
SYMBOL cap 1088 352 R0
SYMATTR InstName C4
SYMATTR Value 0.01µ
SYMBOL res 1360 -64 R90
WINDOW 0 0 56 VBottom 2
WINDOW 3 32 56 VTop 2
SYMATTR InstName R6
SYMATTR Value 500
SYMBOL res 1360 -224 R0
SYMATTR InstName R7
SYMATTR Value 1k
SYMBOL nmos 1328 -352 R0
SYMATTR InstName M1
SYMATTR Value DN2540
SYMBOL References\\LT1021-10 1424 368 R270
SYMATTR InstName U2
SYMBOL cap 928 192 R90
WINDOW 0 0 32 VBottom 2
WINDOW 3 32 32 VTop 2
SYMATTR InstName C5
SYMATTR Value 47p
SYMBOL res 1584 -64 R0
SYMATTR InstName R8
SYMATTR Value 3k
SYMBOL res 1584 112 R0
SYMATTR InstName R9
SYMATTR Value 1.5k
SYMBOL voltage -80 -384 R0
WINDOW 123 0 0 Left 0
WINDOW 39 0 0 Left 0
SYMATTR InstName V4
SYMATTR Value 42
SYMBOL res 1728 -400 R0
SYMATTR InstName R10
SYMATTR Value 20
SYMBOL OpAmps\\opamp2 896 80 R180
SYMATTR InstName U3
SYMATTR Value opa134
TEXT 464 -488 Left 2 !.include OPA134.txt
TEXT -114 552 Left 2 !.tran 1 startup
