Version 4
SHEET 1 1156 820
WIRE -48 -416 -48 -480
WIRE 816 -416 816 -480
WIRE -48 -240 -48 -336
WIRE 816 -240 816 -336
WIRE -304 -192 -576 -192
WIRE -256 -192 -304 -192
WIRE -96 -192 -176 -192
WIRE 944 -192 864 -192
WIRE -304 -128 -304 -192
WIRE 944 -128 944 -192
WIRE -576 -112 -576 -192
WIRE -576 0 -576 -32
WIRE -80 0 -80 -144
WIRE 384 0 -80 0
WIRE 848 0 848 -144
WIRE 848 0 384 0
WIRE -304 16 -304 -48
WIRE 384 64 384 0
WIRE 336 144 240 144
WIRE 384 224 384 160
WIRE 240 256 240 144
WIRE 512 304 448 304
WIRE 624 304 512 304
WIRE 512 352 512 304
WIRE 624 352 624 304
WIRE 240 480 240 336
WIRE 384 480 384 384
WIRE 384 480 240 480
WIRE 512 480 512 432
WIRE 512 480 384 480
WIRE 384 512 384 480
WIRE 384 608 384 576
WIRE 624 608 624 432
WIRE 624 608 384 608
WIRE 384 656 384 608
WIRE 128 688 128 656
WIRE 384 752 384 736
WIRE 128 800 128 768
FLAG 384 752 0
FLAG 128 656 V+
FLAG 128 800 0
FLAG -48 -480 V+
FLAG 944 -128 0
FLAG 816 -480 V+
FLAG -576 0 0
FLAG -304 16 0
SYMBOL AutoGenerated\\LM334 384 304 R0
SYMATTR InstName U1
SYMBOL nmos 336 64 R0
SYMATTR InstName M1
SYMATTR Value DN2540
SYMBOL res 496 336 R0
SYMATTR InstName R1
SYMATTR Value 70
SYMBOL res 224 240 R0
SYMATTR InstName R2
SYMATTR Value 100
SYMBOL res 608 336 R0
SYMATTR InstName R3
SYMATTR Value 700
SYMBOL diode 368 512 R0
SYMATTR InstName D1
SYMATTR Value 1N914
SYMBOL voltage 384 640 R0
WINDOW 123 0 0 Left 0
WINDOW 39 0 0 Left 0
SYMATTR InstName V1
SYMATTR Value -20
SYMBOL res -64 -432 R0
SYMATTR InstName R4
SYMATTR Value 100k
SYMBOL voltage 128 672 R0
WINDOW 123 0 0 Left 0
WINDOW 39 0 0 Left 0
SYMATTR InstName V2
SYMATTR Value 225
SYMBOL Misc\\triode -48 -192 R0
SYMATTR InstName U2
SYMATTR Value NH12AU7
SYMBOL res 832 -432 M0
SYMATTR InstName R5
SYMATTR Value 100k
SYMBOL Misc\\triode 816 -192 M0
SYMATTR InstName U3
SYMATTR Value NH12AU7
SYMBOL res -160 -208 R90
WINDOW 0 0 56 VBottom 2
WINDOW 3 32 56 VTop 2
SYMATTR InstName R7
SYMATTR Value 1k
SYMBOL res -320 -144 R0
SYMATTR InstName R8
SYMATTR Value 1Meg
SYMBOL voltage -576 -128 R0
WINDOW 123 0 0 Left 0
WINDOW 39 0 0 Left 0
SYMATTR InstName V3
SYMATTR Value SINE(0 1 1k)
TEXT -128 552 Left 2 !.inc lm334.sub
TEXT -128 576 Left 2 !.tran 0.01
TEXT -120 520 Left 2 !.inc dmtriodep.inc
