Version 4
SHEET 1 880 680
WIRE 384 64 384 -48
WIRE 32 96 32 48
WIRE 336 144 240 144
WIRE 384 224 384 160
WIRE 240 256 240 144
WIRE 32 272 32 176
WIRE 512 304 448 304
WIRE 624 304 512 304
WIRE 512 352 512 304
WIRE 624 352 624 304
WIRE 32 384 32 352
WIRE 240 480 240 336
WIRE 384 480 384 384
WIRE 512 480 512 432
WIRE 512 480 384 480
WIRE 384 512 384 480
WIRE 384 608 384 576
WIRE 624 608 624 432
WIRE 624 608 384 608
WIRE 384 640 384 608
FLAG 240 480 0
FLAG 384 -48 V+
FLAG 32 384 0
FLAG 32 48 V+
FLAG 384 640 0
SYMBOL AutoGenerated\\LM334 384 304 R0
SYMATTR InstName U1
SYMBOL nmos 336 64 R0
SYMATTR InstName M1
SYMATTR Value DN2540
SYMBOL res 496 336 R0
SYMATTR InstName R1
SYMATTR Value 26.8
SYMBOL voltage 32 256 R0
WINDOW 123 24 124 Left 2
WINDOW 39 0 0 Left 0
SYMATTR InstName V1
SYMATTR Value ""
SYMATTR Value2 AC 1
SYMBOL voltage 32 80 R0
WINDOW 123 0 0 Left 0
WINDOW 39 0 0 Left 0
SYMATTR InstName V2
SYMATTR Value 225
SYMBOL res 224 240 R0
SYMATTR InstName R2
SYMATTR Value 100
SYMBOL res 608 336 R0
SYMATTR InstName R3
SYMATTR Value 268
SYMBOL diode 368 512 R0
SYMATTR InstName D1
SYMATTR Value 1N914
TEXT -128 552 Left 2 !.inc lm334.sub
TEXT -130 572 Left 2 !.tran 1
