Version 4
SHEET 1 1344 680
WIRE -192 -400 -304 -400
WIRE -48 -400 -160 -400
WIRE 32 -400 -48 -400
WIRE 112 -400 32 -400
WIRE 224 -400 112 -400
WIRE 112 -384 112 -400
WIRE -336 -368 -336 -400
WIRE -336 -368 -384 -368
WIRE -48 -368 -48 -400
WIRE 32 -368 32 -400
WIRE -384 -352 -384 -368
WIRE 224 -320 224 -400
WIRE -48 -272 -48 -304
WIRE 32 -272 32 -288
WIRE 32 -272 -48 -272
WIRE 112 -272 112 -304
WIRE 112 -272 32 -272
WIRE 160 -272 112 -272
WIRE 352 -272 288 -272
WIRE 432 -224 432 -272
WIRE 432 -112 432 -144
WIRE 880 32 768 32
WIRE 1024 32 912 32
WIRE 1168 32 1056 32
WIRE 1312 32 1200 32
WIRE 176 64 80 64
WIRE 304 64 256 64
WIRE 448 64 400 64
WIRE 496 64 448 64
WIRE 736 64 736 32
WIRE 736 64 592 64
WIRE 1312 80 1312 32
WIRE 352 160 352 128
WIRE 448 160 448 64
WIRE 448 160 352 160
WIRE 448 192 448 160
WIRE -32 208 -32 176
WIRE 448 304 448 272
WIRE -32 320 -32 288
WIRE 80 368 80 64
WIRE 192 368 80 368
WIRE 400 368 272 368
WIRE 544 368 544 128
WIRE 544 368 496 368
WIRE 576 368 544 368
WIRE 688 368 656 368
WIRE 80 400 80 368
WIRE 688 400 688 368
FLAG 80 400 0
FLAG -32 320 0
FLAG -32 176 -V
FLAG 688 400 -V
FLAG 1312 80 -V
FLAG 432 -112 0
FLAG -384 -352 0
SYMBOL res 272 48 R90
WINDOW 0 0 56 VBottom 2
WINDOW 3 32 56 VTop 2
SYMATTR InstName R1
SYMATTR Value 6.5
SYMBOL pnp 400 128 M270
SYMATTR InstName Q1
SYMATTR Value 2N3906
SYMBOL pnp 592 128 M270
SYMATTR InstName Q2
SYMATTR Value TIP30
SYMBOL res 432 176 R0
SYMATTR InstName R2
SYMATTR Value 100
SYMBOL pnp 496 304 R90
SYMATTR InstName Q3
SYMATTR Value TIP30
SYMBOL res 672 352 R90
WINDOW 0 0 56 VBottom 2
WINDOW 3 32 56 VTop 2
SYMATTR InstName R3
SYMATTR Value 10k
SYMBOL voltage 176 368 R270
WINDOW 0 32 56 VTop 2
WINDOW 3 -32 56 VBottom 2
WINDOW 123 0 0 Left 0
WINDOW 39 0 0 Left 0
SYMATTR InstName V1
SYMATTR Value 1.2
SYMBOL voltage -32 192 R0
WINDOW 123 0 0 Left 0
WINDOW 39 0 0 Left 0
SYMATTR InstName V2
SYMATTR Value -30
SYMBOL Misc\\triodeh 752 -32 R0
SYMATTR InstName U1
SYMATTR Value 12AU7
SYMBOL Misc\\triodeh 896 -32 R0
SYMATTR InstName U2
SYMATTR Value 12AU7
SYMBOL Misc\\triodeh 1040 -32 R0
SYMATTR InstName U3
SYMATTR Value 12AU7
SYMBOL Misc\\triodeh 1184 -32 R0
SYMATTR InstName U4
SYMATTR Value 12AU7
SYMBOL Misc\\triodeh -320 -464 R0
SYMATTR InstName U5
SYMATTR Value 12AU7
SYMBOL Misc\\triodeh -176 -464 R0
SYMATTR InstName U6
SYMATTR Value 12AU7
SYMBOL voltage 432 -240 R0
WINDOW 123 0 0 Left 0
WINDOW 39 0 0 Left 0
SYMATTR InstName V3
SYMATTR Value -20
SYMBOL AutoGenerated\\LM337 224 -272 R180
SYMATTR InstName U7
SYMBOL res 16 -384 R0
SYMATTR InstName R4
SYMATTR Value 9
SYMBOL cap -64 -368 R0
SYMATTR InstName C1
SYMATTR Value 1µ
SYMBOL res 448 -288 R90
WINDOW 0 0 56 VBottom 2
WINDOW 3 32 56 VTop 2
SYMATTR InstName R5
SYMATTR Value 1
SYMBOL res 96 -400 R0
SYMATTR InstName R6
SYMATTR Value 150
TEXT -64 472 Left 2 !.tran 0 30 1 startup
TEXT -64 512 Left 2 !.include dmtriodep.inc
