Version 4
SHEET 1 880 680
WIRE -224 112 -352 112
WIRE 0 112 -64 112
WIRE 160 112 80 112
WIRE 288 112 288 80
WIRE 288 112 160 112
WIRE 320 112 320 80
WIRE 432 112 432 80
WIRE 432 112 320 112
WIRE 464 112 464 80
WIRE 576 112 576 80
WIRE 576 112 464 112
WIRE 608 112 608 80
WIRE 720 112 720 80
WIRE 720 112 608 112
WIRE 752 128 752 80
WIRE -352 160 -352 112
WIRE -352 256 -352 240
WIRE -144 304 -144 208
WIRE 160 304 160 112
WIRE 160 304 -144 304
FLAG -352 256 0
FLAG 752 128 0
SYMBOL LM317 -144 144 R0
SYMATTR InstName U1
SYMBOL voltage -352 144 R0
WINDOW 123 0 0 Left 0
WINDOW 39 0 0 Left 0
SYMATTR InstName V1
SYMATTR Value 30
SYMBOL res 96 96 R90
WINDOW 0 0 56 VBottom 2
WINDOW 3 32 56 VTop 2
SYMATTR InstName R1
SYMATTR Value 8.3
SYMBOL Misc\\triodeh 304 16 R0
SYMATTR InstName U2
SYMATTR Value 12AU7
SYMBOL Misc\\triodeh 448 16 R0
SYMATTR InstName U3
SYMATTR Value 12AU7
SYMBOL Misc\\triodeh 592 16 R0
SYMATTR InstName U4
SYMATTR Value 12AU7
SYMBOL Misc\\triodeh 736 16 R0
SYMATTR InstName U5
SYMATTR Value 12AU7
TEXT 174 336 Left 2 !.tran 1 startup
TEXT 176 368 Left 2 !.include dmtriodep.inc
