Version 4
SHEET 1 928 680
WIRE 64 -64 -128 -64
WIRE 160 -64 64 -64
WIRE 272 -64 160 -64
WIRE 416 -64 416 -128
WIRE 416 -64 272 -64
WIRE 448 -64 448 -128
WIRE 64 0 64 -64
WIRE 160 0 160 -64
WIRE 272 0 272 -64
WIRE -128 64 -128 -64
WIRE -192 112 -352 112
WIRE 64 112 64 80
WIRE 64 112 -64 112
WIRE 160 112 160 80
WIRE 160 112 64 112
WIRE 272 112 272 64
WIRE 272 112 160 112
WIRE -352 160 -352 112
WIRE -352 256 -352 240
FLAG -352 256 0
FLAG 448 -64 0
SYMBOL voltage -352 144 R0
WINDOW 123 0 0 Left 0
WINDOW 39 0 0 Left 0
SYMATTR InstName V1
SYMATTR Value -30
SYMBOL res 80 96 R180
WINDOW 0 36 76 Left 2
WINDOW 3 36 40 Left 2
SYMATTR InstName R1
SYMATTR Value 8.33
SYMBOL AutoGenerated\\LM337 -128 112 M180
SYMATTR InstName U1
SYMBOL res 144 -16 R0
SYMATTR InstName R2
SYMATTR Value 200
SYMBOL cap 256 0 R0
SYMATTR InstName C1
SYMATTR Value 1µ
SYMBOL Misc\\triodeh 432 -192 R0
SYMATTR InstName U2
SYMATTR Value 12AU7
TEXT -184 216 Left 2 !.tran 0 60 0.001 startup
TEXT -184 248 Left 2 !.include dmtriodep.inc
