Version 4
SHEET 1 1988 744
WIRE -1344 -688 -1344 -800
WIRE -640 -672 -640 -784
WIRE -1392 -608 -1488 -608
WIRE -688 -592 -784 -592
WIRE -1344 -576 -1344 -592
WIRE -1104 -576 -1344 -576
WIRE -1104 -560 -1104 -576
WIRE -640 -560 -640 -576
WIRE -400 -560 -640 -560
WIRE -96 -560 -96 -656
WIRE 112 -560 -96 -560
WIRE 256 -560 112 -560
WIRE 960 -560 816 -560
WIRE 1168 -560 1168 -656
WIRE 1168 -560 960 -560
WIRE -1344 -544 -1344 -576
WIRE -400 -544 -400 -560
WIRE -1488 -528 -1488 -608
WIRE -640 -528 -640 -560
WIRE -784 -512 -784 -592
WIRE -96 -512 -96 -560
WIRE 1168 -512 1168 -560
WIRE -1232 -464 -1280 -464
WIRE -1232 -448 -1232 -464
WIRE -528 -448 -576 -448
WIRE -1104 -432 -1104 -480
WIRE -528 -432 -528 -448
WIRE -400 -416 -400 -464
WIRE 112 -400 112 -560
WIRE 960 -400 960 -560
WIRE -1488 -352 -1488 -448
WIRE -1344 -352 -1344 -384
WIRE -1344 -352 -1488 -352
WIRE -1232 -352 -1232 -368
WIRE -1232 -352 -1344 -352
WIRE -96 -352 -96 -432
WIRE -64 -352 -96 -352
WIRE 48 -352 16 -352
WIRE 1056 -352 1024 -352
WIRE 1168 -352 1168 -432
WIRE 1168 -352 1136 -352
WIRE -1344 -336 -1344 -352
WIRE -1104 -336 -1104 -368
WIRE -784 -336 -784 -432
WIRE -640 -336 -640 -368
WIRE -640 -336 -784 -336
WIRE -528 -336 -528 -352
WIRE -528 -336 -640 -336
WIRE -640 -320 -640 -336
WIRE -400 -320 -400 -352
WIRE 256 -320 256 -560
WIRE 816 -320 816 -560
WIRE 112 -272 112 -304
WIRE 192 -272 112 -272
WIRE 960 -272 960 -304
WIRE 960 -272 880 -272
WIRE 112 -240 112 -272
WIRE 960 -240 960 -272
WIRE 112 -128 112 -160
WIRE 256 -128 256 -224
WIRE 256 -128 112 -128
WIRE 304 -128 256 -128
WIRE 416 -128 368 -128
WIRE 496 -128 416 -128
WIRE 656 -128 576 -128
WIRE 704 -128 656 -128
WIRE 816 -128 816 -224
WIRE 816 -128 768 -128
WIRE 960 -128 960 -160
WIRE 960 -128 816 -128
WIRE -96 -112 -96 -352
WIRE 1168 -112 1168 -352
WIRE 256 -80 256 -128
WIRE 416 -80 416 -128
WIRE 656 -80 656 -128
WIRE 816 -80 816 -128
WIRE -352 -64 -496 -64
WIRE -272 -64 -352 -64
WIRE -144 -64 -192 -64
WIRE 1264 -64 1216 -64
WIRE -768 -32 -768 -64
WIRE -640 -32 -640 -64
WIRE -496 -32 -496 -64
WIRE -352 0 -352 -64
WIRE 416 48 416 0
WIRE 656 48 656 0
WIRE -768 144 -768 48
WIRE -640 144 -640 48
WIRE -496 144 -496 48
WIRE -352 144 -352 80
WIRE 1264 144 1264 -64
WIRE -128 176 -128 -16
WIRE 528 176 -128 176
WIRE 1200 176 1200 -16
WIRE 1200 176 528 176
WIRE 528 240 528 176
WIRE 480 320 368 320
WIRE 528 352 528 336
WIRE 816 352 528 352
WIRE 528 384 528 352
WIRE 816 384 816 352
WIRE 368 416 368 320
WIRE 672 464 592 464
WIRE 672 480 672 464
WIRE 816 512 816 464
WIRE 368 640 368 496
WIRE 528 640 528 544
WIRE 528 640 368 640
WIRE 672 640 672 560
WIRE 672 640 528 640
WIRE 816 640 816 576
WIRE 816 640 672 640
WIRE 528 672 528 640
FLAG -352 144 0
FLAG 416 48 0
FLAG -96 -656 V+
FLAG -496 144 0
FLAG -640 144 0
FLAG -640 -64 V+
FLAG 656 48 0
FLAG 1168 -656 V+
FLAG 1264 144 0
FLAG 528 672 V-
FLAG -768 144 0
FLAG -768 -64 V-
FLAG -1344 -336 0
FLAG -1344 -800 CCS
FLAG 816 -80 CCS2
FLAG -1104 -336 0
FLAG -640 -320 0
FLAG -640 -784 CCS2
FLAG -400 -320 0
FLAG 256 -80 CCS
SYMBOL Misc\\triode -96 -64 R0
SYMATTR InstName U1
SYMATTR Value NH12AU7
SYMBOL res -176 -80 R90
WINDOW 0 0 56 VBottom 2
WINDOW 3 32 56 VTop 2
SYMATTR InstName R9
SYMATTR Value 1k
SYMBOL res -368 -16 R0
SYMATTR InstName R11
SYMATTR Value 1000k
SYMBOL res 32 -368 R90
WINDOW 0 0 56 VBottom 2
WINDOW 3 32 56 VTop 2
SYMATTR InstName R5
SYMATTR Value 1k
SYMBOL npn 48 -400 R0
SYMATTR InstName Q6
SYMATTR Value KSP42TA
SYMBOL res 96 -256 R0
SYMATTR InstName R28
SYMATTR Value 1k
SYMBOL cap 368 -144 R90
WINDOW 0 0 32 VBottom 2
WINDOW 3 32 32 VTop 2
SYMATTR InstName C8
SYMATTR Value 10µ
SYMBOL res 400 -96 R0
SYMATTR InstName R13
SYMATTR Value 1000k
SYMBOL res -112 -528 R0
SYMATTR InstName R23
SYMATTR Value 100k
SYMBOL voltage -496 -48 R0
WINDOW 123 0 0 Left 0
WINDOW 39 0 0 Left 0
SYMATTR InstName V1
SYMATTR Value SINE(0 2 200)
SYMBOL voltage -640 -48 R0
WINDOW 123 0 0 Left 0
WINDOW 39 0 0 Left 0
SYMATTR InstName V2
SYMATTR Value 225
SYMBOL Misc\\triode 1168 -64 M0
SYMATTR InstName U2
SYMATTR Value NH12AU7
SYMBOL res 1040 -368 M90
WINDOW 0 0 56 VBottom 2
WINDOW 3 32 56 VTop 2
SYMATTR InstName R6
SYMATTR Value 1k
SYMBOL res 976 -256 M0
SYMATTR InstName Q27
SYMATTR Value 1k
SYMBOL cap 704 -144 M90
WINDOW 0 0 32 VBottom 2
WINDOW 3 32 32 VTop 2
SYMATTR InstName C7
SYMATTR Value 10µ
SYMBOL res 672 -96 M0
SYMATTR InstName R14
SYMATTR Value 1000k
SYMBOL res 1184 -528 M0
SYMATTR InstName R24
SYMATTR Value 100k
SYMBOL lm334 528 464 R0
SYMATTR InstName U3
SYMBOL res 656 464 R0
SYMATTR InstName R17
SYMATTR Value 36
SYMBOL voltage -768 -48 R0
WINDOW 123 0 0 Left 0
WINDOW 39 0 0 Left 0
SYMATTR InstName V3
SYMATTR Value -30
SYMBOL res 592 -144 R90
WINDOW 0 0 56 VBottom 2
WINDOW 3 32 56 VTop 2
SYMATTR InstName R1
SYMATTR Value 10k
SYMBOL npn 192 -320 R0
SYMATTR InstName Q1
SYMATTR Value KSP42TA
SYMBOL npn 880 -320 M0
SYMATTR InstName Q2
SYMATTR Value KSP42TA
SYMBOL npn 1024 -400 M0
SYMATTR InstName Q3
SYMATTR Value KSP42TA
SYMBOL nmos -1392 -688 R0
SYMATTR InstName M2
SYMATTR Value DN2540
SYMBOL lm334 -1344 -464 R0
SYMATTR InstName U5
SYMBOL res -1248 -464 R0
SYMATTR InstName R3
SYMATTR Value 13.8
SYMBOL res -1504 -544 R0
SYMATTR InstName R4
SYMATTR Value 100
SYMBOL res -1120 -576 R0
SYMATTR InstName R7
SYMATTR Value 10
SYMBOL cap -1120 -432 R0
SYMATTR InstName C2
SYMATTR Value 0.1µ
SYMBOL nmos -688 -672 R0
SYMATTR InstName M1
SYMATTR Value DN2540
SYMBOL lm334 -640 -448 R0
SYMATTR InstName U4
SYMBOL res -544 -448 R0
SYMATTR InstName R2
SYMATTR Value 13.8
SYMBOL res -800 -528 R0
SYMATTR InstName R8
SYMATTR Value 100
SYMBOL res -416 -560 R0
SYMATTR InstName R10
SYMATTR Value 10
SYMBOL cap -416 -416 R0
SYMATTR InstName C4
SYMATTR Value 0.1µ
SYMBOL nmos 480 240 R0
SYMATTR InstName M3
SYMATTR Value DN2540
SYMBOL res 352 400 R0
SYMATTR InstName R12
SYMATTR Value 100
SYMBOL res 800 368 R0
SYMATTR InstName R15
SYMATTR Value 10
SYMBOL cap 800 512 R0
SYMATTR InstName C6
SYMATTR Value 0.1µ
TEXT -672 312 Left 2 !.inc dmtriodep.inc
TEXT -672 336 Left 2 !.tran 0 1 0.1 startup uic
TEXT -664 280 Left 2 !.inc lm334.sub
TEXT 408 -192 Left 2 ;OUTPUT TRANSFORMER
TEXT -392 -104 Left 2 ;INPUT
TEXT -192 -664 Left 2 ;225V
