Version 4
SHEET 1 1588 1400
WIRE 192 48 -208 48
WIRE 96 128 80 128
WIRE 192 128 192 48
WIRE 192 128 160 128
WIRE 224 128 192 128
WIRE 304 128 288 128
WIRE -208 160 -208 48
WIRE 80 192 80 128
WIRE 80 192 32 192
WIRE 304 192 304 128
WIRE 384 192 304 192
WIRE 432 192 384 192
WIRE 560 192 512 192
WIRE 672 192 560 192
WIRE 784 192 672 192
WIRE 896 192 784 192
WIRE 1088 192 992 192
WIRE 1232 192 1088 192
WIRE 1360 192 1232 192
WIRE 1520 192 1360 192
WIRE 32 208 32 192
WIRE 384 224 384 192
WIRE 560 224 560 192
WIRE 672 224 672 192
WIRE 784 224 784 192
WIRE 1360 224 1360 192
WIRE 1520 224 1520 192
WIRE 1088 240 1088 192
WIRE 1232 240 1232 192
WIRE 80 256 80 192
WIRE 96 256 80 256
WIRE 192 256 160 256
WIRE 224 256 192 256
WIRE 304 256 304 192
WIRE 304 256 288 256
WIRE 976 256 976 240
WIRE 384 320 384 288
WIRE 560 320 560 288
WIRE 672 320 672 304
WIRE -208 336 -208 240
WIRE 192 336 192 256
WIRE 192 336 -208 336
WIRE 784 352 784 304
WIRE 976 352 976 336
WIRE 976 352 784 352
WIRE 1088 352 1088 304
WIRE 1088 352 976 352
WIRE 1360 352 1360 304
WIRE 1520 352 1520 304
WIRE 976 384 976 352
WIRE 784 400 784 352
WIRE 976 480 976 448
WIRE 1232 480 1232 304
WIRE 1360 480 1360 416
WIRE 784 496 784 464
WIRE 784 592 784 560
WIRE 784 688 784 656
WIRE 784 800 784 752
WIRE 192 848 -192 848
WIRE 480 864 384 864
WIRE 720 864 544 864
WIRE 96 928 80 928
WIRE 192 928 192 848
WIRE 192 928 160 928
WIRE 224 928 192 928
WIRE 304 928 288 928
WIRE -192 960 -192 848
WIRE 80 976 80 928
WIRE 80 976 16 976
WIRE 304 976 304 928
WIRE 384 976 384 864
WIRE 384 976 304 976
WIRE 448 976 384 976
WIRE 720 976 720 864
WIRE 720 976 608 976
WIRE 880 976 720 976
WIRE 992 976 880 976
WIRE 1152 976 992 976
WIRE 720 1008 720 976
WIRE 880 1008 880 976
WIRE 1152 1040 1152 976
WIRE 80 1056 80 976
WIRE 96 1056 80 1056
WIRE 192 1056 160 1056
WIRE 224 1056 192 1056
WIRE 304 1056 304 976
WIRE 304 1056 288 1056
WIRE 992 1072 992 976
WIRE 528 1104 528 1072
WIRE 720 1104 720 1088
WIRE 720 1104 528 1104
WIRE -192 1136 -192 1040
WIRE 192 1136 192 1056
WIRE 192 1136 -192 1136
WIRE 384 1136 384 976
WIRE 720 1168 720 1104
WIRE 880 1168 880 1072
WIRE 16 1312 16 976
WIRE 384 1312 384 1200
WIRE 384 1312 16 1312
WIRE 720 1312 720 1248
WIRE 720 1312 384 1312
WIRE 880 1312 880 1232
WIRE 880 1312 720 1312
WIRE 992 1312 992 1136
WIRE 992 1312 880 1312
WIRE 1136 1312 992 1312
WIRE 1312 1312 1216 1312
WIRE 1312 1360 1312 1312
FLAG 32 208 0
FLAG 384 320 0
FLAG 560 320 0
FLAG 672 320 0
FLAG 784 800 0
FLAG 976 480 0
FLAG 1232 480 0
FLAG 1360 480 0
FLAG 1520 352 0
FLAG 1152 1040 0
FLAG 1312 1360 0
SYMBOL diode 96 144 R270
WINDOW 0 32 32 VTop 2
WINDOW 3 0 32 VBottom 2
SYMATTR InstName D1
SYMBOL diode 96 272 R270
WINDOW 0 32 32 VTop 2
WINDOW 3 0 32 VBottom 2
SYMATTR InstName D2
SYMBOL diode 224 144 R270
WINDOW 0 32 32 VTop 2
WINDOW 3 0 32 VBottom 2
SYMATTR InstName D3
SYMBOL diode 224 272 R270
WINDOW 0 32 32 VTop 2
WINDOW 3 0 32 VBottom 2
SYMATTR InstName D4
SYMBOL voltage -208 144 R0
WINDOW 123 0 0 Left 0
WINDOW 39 0 0 Left 0
SYMATTR InstName V1
SYMATTR Value SINE(0 280 50)
SYMBOL cap 368 224 R0
SYMATTR InstName C1
SYMATTR Value 220µ
SYMBOL res 528 176 R90
WINDOW 0 0 56 VBottom 2
WINDOW 3 32 56 VTop 2
SYMATTR InstName R2
SYMATTR Value 51
SYMBOL cap 544 224 R0
SYMATTR InstName C2
SYMATTR Value 220µ
SYMBOL res 656 208 R0
SYMATTR InstName R1
SYMATTR Value 360k
SYMBOL res 768 208 R0
SYMATTR InstName R3
SYMATTR Value 6.8k
SYMBOL zener 800 464 R180
WINDOW 0 24 64 Left 2
WINDOW 3 24 0 Left 2
SYMATTR InstName D5
SYMATTR Value KDZLV68
SYMATTR Description Diode
SYMATTR Type diode
SYMBOL zener 800 560 R180
WINDOW 0 24 64 Left 2
WINDOW 3 24 0 Left 2
SYMATTR InstName D12
SYMATTR Value KDZLV68
SYMATTR Description Diode
SYMATTR Type diode
SYMBOL zener 800 656 R180
WINDOW 0 24 64 Left 2
WINDOW 3 24 0 Left 2
SYMATTR InstName D11
SYMATTR Value KDZLV68
SYMATTR Description Diode
SYMATTR Type diode
SYMBOL zener 800 752 R180
WINDOW 0 24 64 Left 2
WINDOW 3 24 0 Left 2
SYMATTR InstName D8
SYMATTR Value TFZV9_1B
SYMATTR Description Diode
SYMATTR Type diode
SYMBOL nmos 896 240 R270
SYMATTR InstName M1
SYMBOL res 960 240 R0
SYMATTR InstName R4
SYMATTR Value 1k
SYMBOL cap 960 384 R0
SYMATTR InstName C5
SYMATTR Value 22µ
SYMBOL zener 1072 240 R0
SYMATTR InstName D10
SYMATTR Value TFZV12B
SYMATTR Description Diode
SYMATTR Type diode
SYMBOL cap 1216 240 R0
SYMATTR InstName C6
SYMATTR Value 10µ
SYMBOL res 1344 208 R0
SYMATTR InstName R0
SYMATTR Value 360k
SYMBOL LED 1344 352 R0
SYMATTR InstName D6
SYMATTR Value PT-121-B
SYMATTR Description Diode
SYMATTR Type diode
SYMBOL res 1504 208 R0
SYMATTR InstName R5
SYMATTR Value 19k
SYMBOL diode 96 944 R270
WINDOW 0 32 32 VTop 2
WINDOW 3 0 32 VBottom 2
SYMATTR InstName D7
SYMBOL diode 96 1072 R270
WINDOW 0 32 32 VTop 2
WINDOW 3 0 32 VBottom 2
SYMATTR InstName D9
SYMBOL diode 224 944 R270
WINDOW 0 32 32 VTop 2
WINDOW 3 0 32 VBottom 2
SYMATTR InstName D13
SYMBOL diode 224 1072 R270
WINDOW 0 32 32 VTop 2
WINDOW 3 0 32 VBottom 2
SYMATTR InstName D14
SYMBOL voltage -192 944 R0
WINDOW 123 0 0 Left 0
WINDOW 39 0 0 Left 0
SYMATTR InstName V2
SYMATTR Value SINE(0 34 50)
SYMBOL AutoGenerated\\LM317 528 1008 R0
SYMATTR InstName U1
SYMBOL res 704 992 R0
SYMATTR InstName R6
SYMATTR Value 120
SYMBOL res 704 1152 R0
SYMATTR InstName R7
SYMATTR Value 2760
SYMBOL cap 368 1136 R0
SYMATTR InstName C3
SYMATTR Value 3300µ
SYMBOL cap 976 1072 R0
SYMATTR InstName C4
SYMATTR Value 100µ
SYMBOL res 1232 1296 R90
WINDOW 0 0 56 VBottom 2
WINDOW 3 32 56 VTop 2
SYMATTR InstName R8
SYMATTR Value 135
SYMBOL diode 544 848 R90
WINDOW 0 0 32 VBottom 2
WINDOW 3 32 32 VTop 2
SYMATTR InstName D15
SYMBOL diode 896 1072 R180
WINDOW 0 24 64 Left 2
WINDOW 3 24 0 Left 2
SYMATTR InstName D16
SYMBOL cap 864 1168 R0
SYMATTR InstName C7
SYMATTR Value 10µ
TEXT -242 1384 Left 2 !.tran 0 1 0.1
