Version 4
SHEET 1 2100 788
WIRE -64 -96 -336 -96
WIRE -160 -48 -192 -48
WIRE -64 -48 -64 -96
WIRE -64 -48 -96 -48
WIRE -16 -48 -64 -48
WIRE 80 -48 48 -48
WIRE -336 -32 -336 -96
WIRE -192 0 -192 -48
WIRE -192 0 -240 0
WIRE 80 0 80 -48
WIRE 192 0 80 0
WIRE 528 0 192 0
WIRE 656 0 528 0
WIRE 896 0 752 0
WIRE 944 0 896 0
WIRE 1056 0 1024 0
WIRE 1104 0 1056 0
WIRE 1216 0 1168 0
WIRE 1392 0 1216 0
WIRE 1584 0 1392 0
WIRE 1856 0 1584 0
WIRE 1952 0 1856 0
WIRE 2000 0 1952 0
WIRE -240 16 -240 0
WIRE 896 16 896 0
WIRE 1216 16 1216 0
WIRE -192 48 -192 0
WIRE -160 48 -192 48
WIRE -64 48 -96 48
WIRE -16 48 -64 48
WIRE 80 48 80 0
WIRE 80 48 48 48
WIRE 528 48 528 0
WIRE 528 48 496 48
WIRE 1392 48 1392 0
WIRE 1584 48 1584 0
WIRE 1856 48 1856 0
WIRE 1952 48 1952 0
WIRE 192 64 192 0
WIRE 432 64 304 64
WIRE 528 80 496 80
WIRE 1488 96 1456 96
WIRE 1520 96 1488 96
WIRE -336 112 -336 48
WIRE -64 112 -64 48
WIRE -64 112 -336 112
WIRE 896 112 896 96
WIRE 1216 128 1216 96
WIRE 304 144 304 64
WIRE 528 144 528 80
WIRE 528 144 464 144
WIRE 464 160 464 144
WIRE 736 176 736 48
WIRE 848 176 736 176
WIRE 1056 176 1056 0
WIRE 1056 176 944 176
WIRE 1488 176 1488 96
WIRE 1584 176 1584 144
WIRE 1584 176 1488 176
WIRE 416 240 368 240
WIRE 624 272 592 272
WIRE 736 272 736 176
WIRE 736 272 704 272
WIRE 304 288 304 224
WIRE 464 288 464 256
WIRE 464 288 304 288
WIRE 736 304 736 272
WIRE 864 304 736 304
WIRE 1056 304 1056 176
WIRE 1056 304 928 304
WIRE 368 320 368 240
WIRE 464 320 464 288
WIRE 1280 320 1120 320
WIRE 1392 320 1392 144
WIRE 1392 320 1280 320
WIRE 1280 336 1280 320
WIRE 1392 384 1392 320
WIRE 1584 384 1584 176
WIRE 1216 432 1216 208
WIRE 1280 432 1280 400
WIRE 1280 432 1216 432
WIRE 1328 432 1280 432
WIRE 1744 432 1648 432
WIRE 368 448 368 400
WIRE 464 448 464 400
WIRE 464 448 368 448
WIRE 592 448 592 272
WIRE 592 448 464 448
WIRE 640 448 592 448
WIRE 736 448 640 448
WIRE 640 464 640 448
WIRE 736 464 736 448
WIRE 1392 544 1392 480
WIRE 1488 544 1392 544
WIRE 1584 544 1584 480
WIRE 1584 544 1488 544
WIRE 608 560 512 560
WIRE 640 560 640 544
WIRE 640 560 608 560
WIRE 736 560 736 528
WIRE 736 560 640 560
WIRE 512 576 512 560
WIRE 1488 576 1488 544
WIRE 1744 576 1744 432
WIRE 1216 592 1216 432
WIRE 608 608 608 560
WIRE 704 656 672 656
WIRE 1120 656 1120 320
WIRE 1120 656 784 656
WIRE 192 752 192 128
WIRE 512 752 512 640
WIRE 512 752 192 752
WIRE 608 752 608 704
WIRE 608 752 512 752
WIRE 1216 752 1216 672
WIRE 1216 752 608 752
WIRE 1488 752 1488 656
WIRE 1488 752 1216 752
WIRE 1744 752 1744 656
WIRE 1744 752 1488 752
WIRE 1856 752 1856 112
WIRE 1856 752 1744 752
WIRE 1952 752 1952 128
WIRE 1952 752 1856 752
WIRE 192 768 192 752
FLAG 192 768 0
FLAG 2000 0 OUT
FLAG -240 16 0
SYMBOL voltage -336 -48 R0
WINDOW 3 24 96 Invisible 2
WINDOW 123 0 0 Left 0
WINDOW 39 0 0 Left 0
SYMATTR InstName V1
SYMATTR Value SINE(0 460 50)
SYMBOL cap 176 64 R0
SYMATTR InstName C1
SYMATTR Value 680µ
SYMBOL nmos 656 48 R270
SYMATTR InstName M2
SYMATTR Value C2M1000170j_AB
SYMBOL nmos 416 160 R0
SYMATTR InstName M3
SYMATTR Value DN2540h
SYMBOL res 288 128 R0
SYMATTR InstName R1
SYMATTR Value 1k
SYMBOL res 448 304 R0
SYMATTR InstName R2
SYMATTR Value 4.7k
SYMBOL res 352 304 R0
SYMATTR InstName R3
SYMATTR Value 100
SYMBOL voltage 640 448 R0
WINDOW 123 0 0 Left 0
WINDOW 39 0 0 Left 0
SYMATTR InstName V2
SYMATTR Value 12
SYMBOL diode 528 640 R180
WINDOW 0 24 64 Left 2
WINDOW 3 24 0 Left 2
SYMATTR InstName D1
SYMBOL pnp 672 704 R180
SYMATTR InstName Q1
SYMATTR Value STN9360
SYMBOL res 800 640 R90
WINDOW 0 0 56 VBottom 2
WINDOW 3 32 56 VTop 2
SYMATTR InstName R4
SYMATTR Value 50
SYMBOL cap 720 464 R0
SYMATTR InstName C2
SYMATTR Value 47µ
SYMBOL res 720 256 R90
WINDOW 0 0 56 VBottom 2
WINDOW 3 32 56 VTop 2
SYMATTR InstName R5
SYMATTR Value 2k
SYMBOL npn 848 112 M90
SYMATTR InstName Q2
SYMATTR Value 2N3904
SYMBOL res 880 0 R0
SYMATTR InstName R6
SYMATTR Value 1k
SYMBOL res 1040 -16 R90
WINDOW 0 0 56 VBottom 2
WINDOW 3 32 56 VTop 2
SYMATTR InstName R7
SYMATTR Value 5.1
SYMBOL diode 1104 16 R270
WINDOW 0 32 32 VTop 2
WINDOW 3 0 32 VBottom 2
SYMATTR InstName D2
SYMBOL res 1200 0 R0
SYMATTR InstName R8
SYMATTR Value 390k
SYMBOL res 1200 112 R0
SYMATTR InstName R9
SYMATTR Value 390k
SYMBOL res 1200 576 R0
SYMATTR InstName R10
SYMATTR Value 20k
SYMBOL pnp 1456 144 R180
SYMATTR InstName Q3
SYMATTR Value BC557B
SYMBOL npn 1328 384 R0
SYMATTR InstName Q5
SYMATTR Value KSC5027
SYMBOL res 1472 560 R0
SYMATTR InstName R11
SYMATTR Value 50k
SYMBOL voltage 1744 560 R0
WINDOW 123 0 0 Left 0
WINDOW 39 0 0 Left 0
SYMATTR InstName V4
SYMATTR Value 10
SYMBOL cap 1840 48 R0
SYMATTR InstName C3
SYMATTR Value 680µ
SYMBOL res 1936 32 R0
SYMATTR InstName R12
SYMATTR Value 500k
SYMBOL AutoGenerated\\IXCP10M90S 464 64 R0
SYMATTR InstName U1
SYMBOL cap 1264 336 R0
SYMATTR InstName C4
SYMATTR Value 5p
SYMBOL diode -16 -32 R270
WINDOW 0 32 32 VTop 2
WINDOW 3 0 32 VBottom 2
SYMATTR InstName D3
SYMBOL diode -16 64 R270
WINDOW 0 32 32 VTop 2
WINDOW 3 0 32 VBottom 2
SYMATTR InstName D4
SYMBOL diode -160 -32 R270
WINDOW 0 32 32 VTop 2
WINDOW 3 0 32 VBottom 2
SYMATTR InstName D5
SYMBOL diode -160 64 R270
WINDOW 0 32 32 VTop 2
WINDOW 3 0 32 VBottom 2
SYMATTR InstName D6
SYMBOL pnp 1520 144 M180
SYMATTR InstName Q4
SYMATTR Value BC557B
SYMBOL npn 1648 384 M0
SYMATTR InstName Q6
SYMATTR Value KSC5027
SYMBOL zener 928 288 R90
WINDOW 0 0 32 VBottom 2
WINDOW 3 32 32 VTop 2
SYMATTR InstName D7
SYMATTR Value BZX84B24VL
SYMATTR Description Diode
SYMATTR Type diode
TEXT -90 552 Left 2 !.tran 0 3 0.01 startup
